/*--------------------------------*- C++ -*----------------------------------*\
| =========                 |                                                 |
| \\      /  F ield         | OpenFOAM: The Open Source CFD Toolbox           |
|  \\    /   O peration     | Version:  v2506                                 |
|   \\  /    A nd           | Website:  www.openfoam.com                      |
|    \\/     M anipulation  |                                                 |
\*---------------------------------------------------------------------------*/
FoamFile
{
    version     2.0;
    format      ascii;
    class       dictionary;
    location    "system";
    object      setFieldsDict;
}
// * * * * * * * * * * * * * * * * * * * * * * * * * * * * * * * * * * * * * //

defaultFieldValues
(
    volScalarFieldValue alpha.water 0
);

regions
(
    zoneToCell
    {
        
	name "WaterVolume";
       fieldValues
        (
           volScalarFieldValue alpha.water 1
       );
   }

 //    boxToCell
 //    {
    //     box (0.01 0 -100) (0.02 .0 100);
 //        fieldValues
 //        (
 //            volScalarFieldValue alpha.water 1
 //        );
 //    }
);


// ************************************************************************* //
